52

C   -0.712071538462   1.7080354225e-17   -0.0
C   0.712078461538   1.7080354225e-17   0.0
C   1.42221846154   1.22755   0.0
C   1.42221846154   -1.22755   0.0
C   -1.42222153846   -1.22755   -0.0
C   -1.42222153846   1.22755   0.0
C   0.675098461538   2.4539   0.0
C   2.81773846154   1.20398   0.0
C   0.675098461538   -2.4539   0.0
C   2.81773846154   -1.20398   0.0
C   -0.675091538462   -2.4539   -0.0
C   -2.81774153846   -1.20398   -0.0
C   -0.675091538462   2.4539   -0.0
C   -2.81774153846   1.20398   -0.0
C   3.50522846154   1.7080354225e-17   0.0
C   -3.50523153846   1.7080354225e-17   0.0
H   1.22349846154   3.39003   -0.0
H   3.36291846154   2.14189   -0.0
H   1.22349846154   -3.39003   -0.0
H   3.36291846154   -2.14189   0.0
H   -1.22350153846   -3.39003   -0.0
H   -3.36292153846   -2.14189   -0.0
H   -1.22350153846   3.39003   -0.0
H   -3.36292153846   2.14189   -0.0
H   4.58974846154   1.7080354225e-17   0.0
H   -4.58974153846   1.7080354225e-17   -0.0
C   -0.012071538462000042   1.7080354225e-17   3.1
C   1.412078461538   1.7080354225e-17   3.1
C   2.12221846154   1.22755   3.1
C   2.12221846154   -1.22755   3.1
C   -0.7222215384600001   -1.22755   3.1
C   -0.7222215384600001   1.22755   3.1
C   1.375098461538   2.4539   3.1
C   3.5177384615399996   1.20398   3.1
C   1.375098461538   -2.4539   3.1
C   3.5177384615399996   -1.20398   3.1
C   0.02490846153799997   -2.4539   3.1
C   -2.11774153846   -1.20398   3.1
C   0.02490846153799997   2.4539   3.1
C   -2.11774153846   1.20398   3.1
C   4.20522846154   1.7080354225e-17   3.1
C   -2.80523153846   1.7080354225e-17   3.1
H   1.92349846154   3.39003   3.1
H   4.06291846154   2.14189   3.1
H   1.92349846154   -3.39003   3.1
H   4.06291846154   -2.14189   3.1
H   -0.5235015384600001   -3.39003   3.1
H   -2.66292153846   -2.14189   3.1
H   -0.5235015384600001   3.39003   3.1
H   -2.66292153846   2.14189   3.1
H   5.28974846154   1.7080354225e-17   3.1
H   -3.88974153846   1.7080354225e-17   3.1
