52

C   -0.712071538462   1.7080354225e-17   -0.0
C   0.712078461538   1.7080354225e-17   0.0
C   1.42221846154   1.22755   0.0
C   1.42221846154   -1.22755   0.0
C   -1.42222153846   -1.22755   -0.0
C   -1.42222153846   1.22755   0.0
C   0.675098461538   2.4539   0.0
C   2.81773846154   1.20398   0.0
C   0.675098461538   -2.4539   0.0
C   2.81773846154   -1.20398   0.0
C   -0.675091538462   -2.4539   -0.0
C   -2.81774153846   -1.20398   -0.0
C   -0.675091538462   2.4539   -0.0
C   -2.81774153846   1.20398   -0.0
C   3.50522846154   1.7080354225e-17   0.0
C   -3.50523153846   1.7080354225e-17   0.0
H   1.22349846154   3.39003   -0.0
H   3.36291846154   2.14189   -0.0
H   1.22349846154   -3.39003   -0.0
H   3.36291846154   -2.14189   0.0
H   -1.22350153846   -3.39003   -0.0
H   -3.36292153846   -2.14189   -0.0
H   -1.22350153846   3.39003   -0.0
H   -3.36292153846   2.14189   -0.0
H   4.58974846154   1.7080354225e-17   0.0
H   -4.58974153846   1.7080354225e-17   -0.0
C   -1.912071538462   1.7080354225e-17   3.1
C   -0.4879215384619999   1.7080354225e-17   3.1
C   0.22221846154000002   1.22755   3.1
C   0.22221846154000002   -1.22755   3.1
C   -2.62222153846   -1.22755   3.1
C   -2.62222153846   1.22755   3.1
C   -0.5249015384619999   2.4539   3.1
C   1.61773846154   1.20398   3.1
C   -0.5249015384619999   -2.4539   3.1
C   1.61773846154   -1.20398   3.1
C   -1.875091538462   -2.4539   3.1
C   -4.01774153846   -1.20398   3.1
C   -1.875091538462   2.4539   3.1
C   -4.01774153846   1.20398   3.1
C   2.3052284615399996   1.7080354225e-17   3.1
C   -4.70523153846   1.7080354225e-17   3.1
H   0.023498461540000015   3.39003   3.1
H   2.1629184615400003   2.14189   3.1
H   0.023498461540000015   -3.39003   3.1
H   2.1629184615400003   -2.14189   3.1
H   -2.42350153846   -3.39003   3.1
H   -4.56292153846   -2.14189   3.1
H   -2.42350153846   3.39003   3.1
H   -4.56292153846   2.14189   3.1
H   3.38974846154   1.7080354225e-17   3.1
H   -5.78974153846   1.7080354225e-17   3.1
