52

C   -0.712071538462   1.7080354225e-17   -0.0
C   0.712078461538   1.7080354225e-17   0.0
C   1.42221846154   1.22755   0.0
C   1.42221846154   -1.22755   0.0
C   -1.42222153846   -1.22755   -0.0
C   -1.42222153846   1.22755   0.0
C   0.675098461538   2.4539   0.0
C   2.81773846154   1.20398   0.0
C   0.675098461538   -2.4539   0.0
C   2.81773846154   -1.20398   0.0
C   -0.675091538462   -2.4539   -0.0
C   -2.81774153846   -1.20398   -0.0
C   -0.675091538462   2.4539   -0.0
C   -2.81774153846   1.20398   -0.0
C   3.50522846154   1.7080354225e-17   0.0
C   -3.50523153846   1.7080354225e-17   0.0
H   1.22349846154   3.39003   -0.0
H   3.36291846154   2.14189   -0.0
H   1.22349846154   -3.39003   -0.0
H   3.36291846154   -2.14189   0.0
H   -1.22350153846   -3.39003   -0.0
H   -3.36292153846   -2.14189   -0.0
H   -1.22350153846   3.39003   -0.0
H   -3.36292153846   2.14189   -0.0
H   4.58974846154   1.7080354225e-17   0.0
H   -4.58974153846   1.7080354225e-17   -0.0
C   -3.6120715384619997   1.7080354225e-17   3.1
C   -2.1879215384619997   1.7080354225e-17   3.1
C   -1.47778153846   1.22755   3.1
C   -1.47778153846   -1.22755   3.1
C   -4.32222153846   -1.22755   3.1
C   -4.32222153846   1.22755   3.1
C   -2.224901538462   2.4539   3.1
C   -0.08226153846000006   1.20398   3.1
C   -2.224901538462   -2.4539   3.1
C   -0.08226153846000006   -1.20398   3.1
C   -3.575091538462   -2.4539   3.1
C   -5.71774153846   -1.20398   3.1
C   -3.575091538462   2.4539   3.1
C   -5.71774153846   1.20398   3.1
C   0.6052284615399999   1.7080354225e-17   3.1
C   -6.40523153846   1.7080354225e-17   3.1
H   -1.67650153846   3.39003   3.1
H   0.46291846154000016   2.14189   3.1
H   -1.67650153846   -3.39003   3.1
H   0.46291846154000016   -2.14189   3.1
H   -4.12350153846   -3.39003   3.1
H   -6.2629215384600005   -2.14189   3.1
H   -4.12350153846   3.39003   3.1
H   -6.2629215384600005   2.14189   3.1
H   1.6897484615400002   1.7080354225e-17   3.1
H   -7.489741538460001   1.7080354225e-17   3.1
