52

C   -0.712071538462   1.7080354225e-17   -0.0
C   0.712078461538   1.7080354225e-17   0.0
C   1.42221846154   1.22755   0.0
C   1.42221846154   -1.22755   0.0
C   -1.42222153846   -1.22755   -0.0
C   -1.42222153846   1.22755   0.0
C   0.675098461538   2.4539   0.0
C   2.81773846154   1.20398   0.0
C   0.675098461538   -2.4539   0.0
C   2.81773846154   -1.20398   0.0
C   -0.675091538462   -2.4539   -0.0
C   -2.81774153846   -1.20398   -0.0
C   -0.675091538462   2.4539   -0.0
C   -2.81774153846   1.20398   -0.0
C   3.50522846154   1.7080354225e-17   0.0
C   -3.50523153846   1.7080354225e-17   0.0
H   1.22349846154   3.39003   -0.0
H   3.36291846154   2.14189   -0.0
H   1.22349846154   -3.39003   -0.0
H   3.36291846154   -2.14189   0.0
H   -1.22350153846   -3.39003   -0.0
H   -3.36292153846   -2.14189   -0.0
H   -1.22350153846   3.39003   -0.0
H   -3.36292153846   2.14189   -0.0
H   4.58974846154   1.7080354225e-17   0.0
H   -4.58974153846   1.7080354225e-17   -0.0
C   -2.512071538462   1.7080354225e-17   3.1
C   -1.087921538462   1.7080354225e-17   3.1
C   -0.37778153846000007   1.22755   3.1
C   -0.37778153846000007   -1.22755   3.1
C   -3.2222215384600004   -1.22755   3.1
C   -3.2222215384600004   1.22755   3.1
C   -1.124901538462   2.4539   3.1
C   1.0177384615399998   1.20398   3.1
C   -1.124901538462   -2.4539   3.1
C   1.0177384615399998   -1.20398   3.1
C   -2.4750915384620003   -2.4539   3.1
C   -4.61774153846   -1.20398   3.1
C   -2.4750915384620003   2.4539   3.1
C   -4.61774153846   1.20398   3.1
C   1.7052284615399997   1.7080354225e-17   3.1
C   -5.30523153846   1.7080354225e-17   3.1
H   -0.5765015384600001   3.39003   3.1
H   1.56291846154   2.14189   3.1
H   -0.5765015384600001   -3.39003   3.1
H   1.56291846154   -2.14189   3.1
H   -3.02350153846   -3.39003   3.1
H   -5.16292153846   -2.14189   3.1
H   -3.02350153846   3.39003   3.1
H   -5.16292153846   2.14189   3.1
H   2.7897484615400003   1.7080354225e-17   3.1
H   -6.38974153846   1.7080354225e-17   3.1
