52

C   -0.712071538462   1.7080354225e-17   -0.0
C   0.712078461538   1.7080354225e-17   0.0
C   1.42221846154   1.22755   0.0
C   1.42221846154   -1.22755   0.0
C   -1.42222153846   -1.22755   -0.0
C   -1.42222153846   1.22755   0.0
C   0.675098461538   2.4539   0.0
C   2.81773846154   1.20398   0.0
C   0.675098461538   -2.4539   0.0
C   2.81773846154   -1.20398   0.0
C   -0.675091538462   -2.4539   -0.0
C   -2.81774153846   -1.20398   -0.0
C   -0.675091538462   2.4539   -0.0
C   -2.81774153846   1.20398   -0.0
C   3.50522846154   1.7080354225e-17   0.0
C   -3.50523153846   1.7080354225e-17   0.0
H   1.22349846154   3.39003   -0.0
H   3.36291846154   2.14189   -0.0
H   1.22349846154   -3.39003   -0.0
H   3.36291846154   -2.14189   0.0
H   -1.22350153846   -3.39003   -0.0
H   -3.36292153846   -2.14189   -0.0
H   -1.22350153846   3.39003   -0.0
H   -3.36292153846   2.14189   -0.0
H   4.58974846154   1.7080354225e-17   0.0
H   -4.58974153846   1.7080354225e-17   -0.0
C   -0.412071538462   1.7080354225e-17   3.1
C   1.012078461538   1.7080354225e-17   3.1
C   1.72221846154   1.22755   3.1
C   1.72221846154   -1.22755   3.1
C   -1.12222153846   -1.22755   3.1
C   -1.12222153846   1.22755   3.1
C   0.9750984615380001   2.4539   3.1
C   3.1177384615399997   1.20398   3.1
C   0.9750984615380001   -2.4539   3.1
C   3.1177384615399997   -1.20398   3.1
C   -0.375091538462   -2.4539   3.1
C   -2.51774153846   -1.20398   3.1
C   -0.375091538462   2.4539   3.1
C   -2.51774153846   1.20398   3.1
C   3.8052284615399996   1.7080354225e-17   3.1
C   -3.20523153846   1.7080354225e-17   3.1
H   1.52349846154   3.39003   3.1
H   3.66291846154   2.14189   3.1
H   1.52349846154   -3.39003   3.1
H   3.66291846154   -2.14189   3.1
H   -0.92350153846   -3.39003   3.1
H   -3.0629215384600004   -2.14189   3.1
H   -0.92350153846   3.39003   3.1
H   -3.0629215384600004   2.14189   3.1
H   4.88974846154   1.7080354225e-17   3.1
H   -4.28974153846   1.7080354225e-17   3.1
