52

C   -0.712071538462   1.7080354225e-17   -0.0
C   0.712078461538   1.7080354225e-17   0.0
C   1.42221846154   1.22755   0.0
C   1.42221846154   -1.22755   0.0
C   -1.42222153846   -1.22755   -0.0
C   -1.42222153846   1.22755   0.0
C   0.675098461538   2.4539   0.0
C   2.81773846154   1.20398   0.0
C   0.675098461538   -2.4539   0.0
C   2.81773846154   -1.20398   0.0
C   -0.675091538462   -2.4539   -0.0
C   -2.81774153846   -1.20398   -0.0
C   -0.675091538462   2.4539   -0.0
C   -2.81774153846   1.20398   -0.0
C   3.50522846154   1.7080354225e-17   0.0
C   -3.50523153846   1.7080354225e-17   0.0
H   1.22349846154   3.39003   -0.0
H   3.36291846154   2.14189   -0.0
H   1.22349846154   -3.39003   -0.0
H   3.36291846154   -2.14189   0.0
H   -1.22350153846   -3.39003   -0.0
H   -3.36292153846   -2.14189   -0.0
H   -1.22350153846   3.39003   -0.0
H   -3.36292153846   2.14189   -0.0
H   4.58974846154   1.7080354225e-17   0.0
H   -4.58974153846   1.7080354225e-17   -0.0
C   -4.512071538462   1.7080354225e-17   3.1
C   -3.087921538462   1.7080354225e-17   3.1
C   -2.37778153846   1.22755   3.1
C   -2.37778153846   -1.22755   3.1
C   -5.2222215384599995   -1.22755   3.1
C   -5.2222215384599995   1.22755   3.1
C   -3.124901538462   2.4539   3.1
C   -0.98226153846   1.20398   3.1
C   -3.124901538462   -2.4539   3.1
C   -0.98226153846   -1.20398   3.1
C   -4.475091538461999   -2.4539   3.1
C   -6.61774153846   -1.20398   3.1
C   -4.475091538461999   2.4539   3.1
C   -6.61774153846   1.20398   3.1
C   -0.29477153846000004   1.7080354225e-17   3.1
C   -7.305231538459999   1.7080354225e-17   3.1
H   -2.5765015384599996   3.39003   3.1
H   -0.43708153845999975   2.14189   3.1
H   -2.5765015384599996   -3.39003   3.1
H   -0.43708153845999975   -2.14189   3.1
H   -5.02350153846   -3.39003   3.1
H   -7.16292153846   -2.14189   3.1
H   -5.02350153846   3.39003   3.1
H   -7.16292153846   2.14189   3.1
H   0.7897484615400003   1.7080354225e-17   3.1
H   -8.389741538460001   1.7080354225e-17   3.1
