52

C   -0.712071538462   1.7080354225e-17   -0.0
C   0.712078461538   1.7080354225e-17   0.0
C   1.42221846154   1.22755   0.0
C   1.42221846154   -1.22755   0.0
C   -1.42222153846   -1.22755   -0.0
C   -1.42222153846   1.22755   0.0
C   0.675098461538   2.4539   0.0
C   2.81773846154   1.20398   0.0
C   0.675098461538   -2.4539   0.0
C   2.81773846154   -1.20398   0.0
C   -0.675091538462   -2.4539   -0.0
C   -2.81774153846   -1.20398   -0.0
C   -0.675091538462   2.4539   -0.0
C   -2.81774153846   1.20398   -0.0
C   3.50522846154   1.7080354225e-17   0.0
C   -3.50523153846   1.7080354225e-17   0.0
H   1.22349846154   3.39003   -0.0
H   3.36291846154   2.14189   -0.0
H   1.22349846154   -3.39003   -0.0
H   3.36291846154   -2.14189   0.0
H   -1.22350153846   -3.39003   -0.0
H   -3.36292153846   -2.14189   -0.0
H   -1.22350153846   3.39003   -0.0
H   -3.36292153846   2.14189   -0.0
H   4.58974846154   1.7080354225e-17   0.0
H   -4.58974153846   1.7080354225e-17   -0.0
C   2.3879284615380003   1.7080354225e-17   3.1
C   3.8120784615380003   1.7080354225e-17   3.1
C   4.52221846154   1.22755   3.1
C   4.52221846154   -1.22755   3.1
C   1.67777846154   -1.22755   3.1
C   1.67777846154   1.22755   3.1
C   3.775098461538   2.4539   3.1
C   5.91773846154   1.20398   3.1
C   3.775098461538   -2.4539   3.1
C   5.91773846154   -1.20398   3.1
C   2.424908461538   -2.4539   3.1
C   0.2822584615400001   -1.20398   3.1
C   2.424908461538   2.4539   3.1
C   0.2822584615400001   1.20398   3.1
C   6.605228461539999   1.7080354225e-17   3.1
C   -0.4052315384599998   1.7080354225e-17   3.1
H   4.32349846154   3.39003   3.1
H   6.46291846154   2.14189   3.1
H   4.32349846154   -3.39003   3.1
H   6.46291846154   -2.14189   3.1
H   1.87649846154   -3.39003   3.1
H   -0.2629215384600001   -2.14189   3.1
H   1.87649846154   3.39003   3.1
H   -0.2629215384600001   2.14189   3.1
H   7.689748461540001   1.7080354225e-17   3.1
H   -1.4897415384600001   1.7080354225e-17   3.1
