52

C   -0.712071538462   1.7080354225e-17   -0.0
C   0.712078461538   1.7080354225e-17   0.0
C   1.42221846154   1.22755   0.0
C   1.42221846154   -1.22755   0.0
C   -1.42222153846   -1.22755   -0.0
C   -1.42222153846   1.22755   0.0
C   0.675098461538   2.4539   0.0
C   2.81773846154   1.20398   0.0
C   0.675098461538   -2.4539   0.0
C   2.81773846154   -1.20398   0.0
C   -0.675091538462   -2.4539   -0.0
C   -2.81774153846   -1.20398   -0.0
C   -0.675091538462   2.4539   -0.0
C   -2.81774153846   1.20398   -0.0
C   3.50522846154   1.7080354225e-17   0.0
C   -3.50523153846   1.7080354225e-17   0.0
H   1.22349846154   3.39003   -0.0
H   3.36291846154   2.14189   -0.0
H   1.22349846154   -3.39003   -0.0
H   3.36291846154   -2.14189   0.0
H   -1.22350153846   -3.39003   -0.0
H   -3.36292153846   -2.14189   -0.0
H   -1.22350153846   3.39003   -0.0
H   -3.36292153846   2.14189   -0.0
H   4.58974846154   1.7080354225e-17   0.0
H   -4.58974153846   1.7080354225e-17   -0.0
C   0.6879284615379999   1.7080354225e-17   3.1
C   2.112078461538   1.7080354225e-17   3.1
C   2.82221846154   1.22755   3.1
C   2.82221846154   -1.22755   3.1
C   -0.02222153846000019   -1.22755   3.1
C   -0.02222153846000019   1.22755   3.1
C   2.075098461538   2.4539   3.1
C   4.21773846154   1.20398   3.1
C   2.075098461538   -2.4539   3.1
C   4.21773846154   -1.20398   3.1
C   0.7249084615379999   -2.4539   3.1
C   -1.41774153846   -1.20398   3.1
C   0.7249084615379999   2.4539   3.1
C   -1.41774153846   1.20398   3.1
C   4.90522846154   1.7080354225e-17   3.1
C   -2.10523153846   1.7080354225e-17   3.1
H   2.6234984615399997   3.39003   3.1
H   4.76291846154   2.14189   3.1
H   2.6234984615399997   -3.39003   3.1
H   4.76291846154   -2.14189   3.1
H   0.17649846153999982   -3.39003   3.1
H   -1.9629215384600003   -2.14189   3.1
H   0.17649846153999982   3.39003   3.1
H   -1.9629215384600003   2.14189   3.1
H   5.98974846154   1.7080354225e-17   3.1
H   -3.1897415384600003   1.7080354225e-17   3.1
