52

C   -0.712071538462   1.7080354225e-17   -0.0
C   0.712078461538   1.7080354225e-17   0.0
C   1.42221846154   1.22755   0.0
C   1.42221846154   -1.22755   0.0
C   -1.42222153846   -1.22755   -0.0
C   -1.42222153846   1.22755   0.0
C   0.675098461538   2.4539   0.0
C   2.81773846154   1.20398   0.0
C   0.675098461538   -2.4539   0.0
C   2.81773846154   -1.20398   0.0
C   -0.675091538462   -2.4539   -0.0
C   -2.81774153846   -1.20398   -0.0
C   -0.675091538462   2.4539   -0.0
C   -2.81774153846   1.20398   -0.0
C   3.50522846154   1.7080354225e-17   0.0
C   -3.50523153846   1.7080354225e-17   0.0
H   1.22349846154   3.39003   -0.0
H   3.36291846154   2.14189   -0.0
H   1.22349846154   -3.39003   -0.0
H   3.36291846154   -2.14189   0.0
H   -1.22350153846   -3.39003   -0.0
H   -3.36292153846   -2.14189   -0.0
H   -1.22350153846   3.39003   -0.0
H   -3.36292153846   2.14189   -0.0
H   4.58974846154   1.7080354225e-17   0.0
H   -4.58974153846   1.7080354225e-17   -0.0
C   -1.812071538462   1.7080354225e-17   3.1
C   -0.38792153846200006   1.7080354225e-17   3.1
C   0.3222184615399999   1.22755   3.1
C   0.3222184615399999   -1.22755   3.1
C   -2.52222153846   -1.22755   3.1
C   -2.52222153846   1.22755   3.1
C   -0.4249015384620001   2.4539   3.1
C   1.7177384615399998   1.20398   3.1
C   -0.4249015384620001   -2.4539   3.1
C   1.7177384615399998   -1.20398   3.1
C   -1.775091538462   -2.4539   3.1
C   -3.91774153846   -1.20398   3.1
C   -1.775091538462   2.4539   3.1
C   -3.91774153846   1.20398   3.1
C   2.4052284615399997   1.7080354225e-17   3.1
C   -4.60523153846   1.7080354225e-17   3.1
H   0.12349846153999988   3.39003   3.1
H   2.26291846154   2.14189   3.1
H   0.12349846153999988   -3.39003   3.1
H   2.26291846154   -2.14189   3.1
H   -2.3235015384600004   -3.39003   3.1
H   -4.46292153846   -2.14189   3.1
H   -2.3235015384600004   3.39003   3.1
H   -4.46292153846   2.14189   3.1
H   3.48974846154   1.7080354225e-17   3.1
H   -5.68974153846   1.7080354225e-17   3.1
