52

C   -0.712071538462   1.7080354225e-17   -0.0
C   0.712078461538   1.7080354225e-17   0.0
C   1.42221846154   1.22755   0.0
C   1.42221846154   -1.22755   0.0
C   -1.42222153846   -1.22755   -0.0
C   -1.42222153846   1.22755   0.0
C   0.675098461538   2.4539   0.0
C   2.81773846154   1.20398   0.0
C   0.675098461538   -2.4539   0.0
C   2.81773846154   -1.20398   0.0
C   -0.675091538462   -2.4539   -0.0
C   -2.81774153846   -1.20398   -0.0
C   -0.675091538462   2.4539   -0.0
C   -2.81774153846   1.20398   -0.0
C   3.50522846154   1.7080354225e-17   0.0
C   -3.50523153846   1.7080354225e-17   0.0
H   1.22349846154   3.39003   -0.0
H   3.36291846154   2.14189   -0.0
H   1.22349846154   -3.39003   -0.0
H   3.36291846154   -2.14189   0.0
H   -1.22350153846   -3.39003   -0.0
H   -3.36292153846   -2.14189   -0.0
H   -1.22350153846   3.39003   -0.0
H   -3.36292153846   2.14189   -0.0
H   4.58974846154   1.7080354225e-17   0.0
H   -4.58974153846   1.7080354225e-17   -0.0
C   2.787928461538   1.7080354225e-17   3.1
C   4.212078461538   1.7080354225e-17   3.1
C   4.92221846154   1.22755   3.1
C   4.92221846154   -1.22755   3.1
C   2.07777846154   -1.22755   3.1
C   2.07777846154   1.22755   3.1
C   4.175098461538   2.4539   3.1
C   6.317738461539999   1.20398   3.1
C   4.175098461538   -2.4539   3.1
C   6.317738461539999   -1.20398   3.1
C   2.824908461538   -2.4539   3.1
C   0.68225846154   -1.20398   3.1
C   2.824908461538   2.4539   3.1
C   0.68225846154   1.20398   3.1
C   7.00522846154   1.7080354225e-17   3.1
C   -0.005231538459999907   1.7080354225e-17   3.1
H   4.72349846154   3.39003   3.1
H   6.86291846154   2.14189   3.1
H   4.72349846154   -3.39003   3.1
H   6.86291846154   -2.14189   3.1
H   2.27649846154   -3.39003   3.1
H   0.1370784615399998   -2.14189   3.1
H   2.27649846154   3.39003   3.1
H   0.1370784615399998   2.14189   3.1
H   8.089748461540001   1.7080354225e-17   3.1
H   -1.0897415384600002   1.7080354225e-17   3.1
