52

C   -0.712071538462   1.7080354225e-17   -0.0
C   0.712078461538   1.7080354225e-17   0.0
C   1.42221846154   1.22755   0.0
C   1.42221846154   -1.22755   0.0
C   -1.42222153846   -1.22755   -0.0
C   -1.42222153846   1.22755   0.0
C   0.675098461538   2.4539   0.0
C   2.81773846154   1.20398   0.0
C   0.675098461538   -2.4539   0.0
C   2.81773846154   -1.20398   0.0
C   -0.675091538462   -2.4539   -0.0
C   -2.81774153846   -1.20398   -0.0
C   -0.675091538462   2.4539   -0.0
C   -2.81774153846   1.20398   -0.0
C   3.50522846154   1.7080354225e-17   0.0
C   -3.50523153846   1.7080354225e-17   0.0
H   1.22349846154   3.39003   -0.0
H   3.36291846154   2.14189   -0.0
H   1.22349846154   -3.39003   -0.0
H   3.36291846154   -2.14189   0.0
H   -1.22350153846   -3.39003   -0.0
H   -3.36292153846   -2.14189   -0.0
H   -1.22350153846   3.39003   -0.0
H   -3.36292153846   2.14189   -0.0
H   4.58974846154   1.7080354225e-17   0.0
H   -4.58974153846   1.7080354225e-17   -0.0
C   -2.1120715384619997   1.7080354225e-17   3.1
C   -0.6879215384619999   1.7080354225e-17   3.1
C   0.022218461540000067   1.22755   3.1
C   0.022218461540000067   -1.22755   3.1
C   -2.82222153846   -1.22755   3.1
C   -2.82222153846   1.22755   3.1
C   -0.7249015384619999   2.4539   3.1
C   1.41773846154   1.20398   3.1
C   -0.7249015384619999   -2.4539   3.1
C   1.41773846154   -1.20398   3.1
C   -2.075091538462   -2.4539   3.1
C   -4.21774153846   -1.20398   3.1
C   -2.075091538462   2.4539   3.1
C   -4.21774153846   1.20398   3.1
C   2.10522846154   1.7080354225e-17   3.1
C   -4.90523153846   1.7080354225e-17   3.1
H   -0.17650153845999994   3.39003   3.1
H   1.9629184615400002   2.14189   3.1
H   -0.17650153845999994   -3.39003   3.1
H   1.9629184615400002   -2.14189   3.1
H   -2.6235015384600002   -3.39003   3.1
H   -4.7629215384600005   -2.14189   3.1
H   -2.6235015384600002   3.39003   3.1
H   -4.7629215384600005   2.14189   3.1
H   3.1897484615400002   1.7080354225e-17   3.1
H   -5.989741538460001   1.7080354225e-17   3.1
