52

C   -0.712071538462   1.7080354225e-17   -0.0
C   0.712078461538   1.7080354225e-17   0.0
C   1.42221846154   1.22755   0.0
C   1.42221846154   -1.22755   0.0
C   -1.42222153846   -1.22755   -0.0
C   -1.42222153846   1.22755   0.0
C   0.675098461538   2.4539   0.0
C   2.81773846154   1.20398   0.0
C   0.675098461538   -2.4539   0.0
C   2.81773846154   -1.20398   0.0
C   -0.675091538462   -2.4539   -0.0
C   -2.81774153846   -1.20398   -0.0
C   -0.675091538462   2.4539   -0.0
C   -2.81774153846   1.20398   -0.0
C   3.50522846154   1.7080354225e-17   0.0
C   -3.50523153846   1.7080354225e-17   0.0
H   1.22349846154   3.39003   -0.0
H   3.36291846154   2.14189   -0.0
H   1.22349846154   -3.39003   -0.0
H   3.36291846154   -2.14189   0.0
H   -1.22350153846   -3.39003   -0.0
H   -3.36292153846   -2.14189   -0.0
H   -1.22350153846   3.39003   -0.0
H   -3.36292153846   2.14189   -0.0
H   4.58974846154   1.7080354225e-17   0.0
H   -4.58974153846   1.7080354225e-17   -0.0
C   1.187928461538   1.7080354225e-17   3.1
C   2.612078461538   1.7080354225e-17   3.1
C   3.32221846154   1.22755   3.1
C   3.32221846154   -1.22755   3.1
C   0.4777784615399998   -1.22755   3.1
C   0.4777784615399998   1.22755   3.1
C   2.575098461538   2.4539   3.1
C   4.71773846154   1.20398   3.1
C   2.575098461538   -2.4539   3.1
C   4.71773846154   -1.20398   3.1
C   1.224908461538   -2.4539   3.1
C   -0.9177415384600001   -1.20398   3.1
C   1.224908461538   2.4539   3.1
C   -0.9177415384600001   1.20398   3.1
C   5.40522846154   1.7080354225e-17   3.1
C   -1.60523153846   1.7080354225e-17   3.1
H   3.1234984615399997   3.39003   3.1
H   5.26291846154   2.14189   3.1
H   3.1234984615399997   -3.39003   3.1
H   5.26291846154   -2.14189   3.1
H   0.6764984615399998   -3.39003   3.1
H   -1.4629215384600003   -2.14189   3.1
H   0.6764984615399998   3.39003   3.1
H   -1.4629215384600003   2.14189   3.1
H   6.48974846154   1.7080354225e-17   3.1
H   -2.6897415384600003   1.7080354225e-17   3.1
