52

C   -0.712071538462   1.7080354225e-17   -0.0
C   0.712078461538   1.7080354225e-17   0.0
C   1.42221846154   1.22755   0.0
C   1.42221846154   -1.22755   0.0
C   -1.42222153846   -1.22755   -0.0
C   -1.42222153846   1.22755   0.0
C   0.675098461538   2.4539   0.0
C   2.81773846154   1.20398   0.0
C   0.675098461538   -2.4539   0.0
C   2.81773846154   -1.20398   0.0
C   -0.675091538462   -2.4539   -0.0
C   -2.81774153846   -1.20398   -0.0
C   -0.675091538462   2.4539   -0.0
C   -2.81774153846   1.20398   -0.0
C   3.50522846154   1.7080354225e-17   0.0
C   -3.50523153846   1.7080354225e-17   0.0
H   1.22349846154   3.39003   -0.0
H   3.36291846154   2.14189   -0.0
H   1.22349846154   -3.39003   -0.0
H   3.36291846154   -2.14189   0.0
H   -1.22350153846   -3.39003   -0.0
H   -3.36292153846   -2.14189   -0.0
H   -1.22350153846   3.39003   -0.0
H   -3.36292153846   2.14189   -0.0
H   4.58974846154   1.7080354225e-17   0.0
H   -4.58974153846   1.7080354225e-17   -0.0
C   -1.212071538462   1.7080354225e-17   3.1
C   0.21207846153800003   1.7080354225e-17   3.1
C   0.92221846154   1.22755   3.1
C   0.92221846154   -1.22755   3.1
C   -1.92222153846   -1.22755   3.1
C   -1.92222153846   1.22755   3.1
C   0.17509846153800002   2.4539   3.1
C   2.31773846154   1.20398   3.1
C   0.17509846153800002   -2.4539   3.1
C   2.31773846154   -1.20398   3.1
C   -1.175091538462   -2.4539   3.1
C   -3.31774153846   -1.20398   3.1
C   -1.175091538462   2.4539   3.1
C   -3.31774153846   1.20398   3.1
C   3.00522846154   1.7080354225e-17   3.1
C   -4.00523153846   1.7080354225e-17   3.1
H   0.72349846154   3.39003   3.1
H   2.86291846154   2.14189   3.1
H   0.72349846154   -3.39003   3.1
H   2.86291846154   -2.14189   3.1
H   -1.72350153846   -3.39003   3.1
H   -3.86292153846   -2.14189   3.1
H   -1.72350153846   3.39003   3.1
H   -3.86292153846   2.14189   3.1
H   4.08974846154   1.7080354225e-17   3.1
H   -5.08974153846   1.7080354225e-17   3.1
