52

C   -0.712071538462   1.7080354225e-17   -0.0
C   0.712078461538   1.7080354225e-17   0.0
C   1.42221846154   1.22755   0.0
C   1.42221846154   -1.22755   0.0
C   -1.42222153846   -1.22755   -0.0
C   -1.42222153846   1.22755   0.0
C   0.675098461538   2.4539   0.0
C   2.81773846154   1.20398   0.0
C   0.675098461538   -2.4539   0.0
C   2.81773846154   -1.20398   0.0
C   -0.675091538462   -2.4539   -0.0
C   -2.81774153846   -1.20398   -0.0
C   -0.675091538462   2.4539   -0.0
C   -2.81774153846   1.20398   -0.0
C   3.50522846154   1.7080354225e-17   0.0
C   -3.50523153846   1.7080354225e-17   0.0
H   1.22349846154   3.39003   -0.0
H   3.36291846154   2.14189   -0.0
H   1.22349846154   -3.39003   -0.0
H   3.36291846154   -2.14189   0.0
H   -1.22350153846   -3.39003   -0.0
H   -3.36292153846   -2.14189   -0.0
H   -1.22350153846   3.39003   -0.0
H   -3.36292153846   2.14189   -0.0
H   4.58974846154   1.7080354225e-17   0.0
H   -4.58974153846   1.7080354225e-17   -0.0
C   -7.712071538462   1.7080354225e-17   3.1
C   -6.287921538462   1.7080354225e-17   3.1
C   -5.57778153846   1.22755   3.1
C   -5.57778153846   -1.22755   3.1
C   -8.42222153846   -1.22755   3.1
C   -8.42222153846   1.22755   3.1
C   -6.324901538462   2.4539   3.1
C   -4.182261538460001   1.20398   3.1
C   -6.324901538462   -2.4539   3.1
C   -4.182261538460001   -1.20398   3.1
C   -7.675091538462   -2.4539   3.1
C   -9.81774153846   -1.20398   3.1
C   -7.675091538462   2.4539   3.1
C   -9.81774153846   1.20398   3.1
C   -3.49477153846   1.7080354225e-17   3.1
C   -10.50523153846   1.7080354225e-17   3.1
H   -5.77650153846   3.39003   3.1
H   -3.63708153846   2.14189   3.1
H   -5.77650153846   -3.39003   3.1
H   -3.63708153846   -2.14189   3.1
H   -8.22350153846   -3.39003   3.1
H   -10.36292153846   -2.14189   3.1
H   -8.22350153846   3.39003   3.1
H   -10.36292153846   2.14189   3.1
H   -2.41025153846   1.7080354225e-17   3.1
H   -11.58974153846   1.7080354225e-17   3.1
