52

C   -0.712071538462   1.7080354225e-17   -0.0
C   0.712078461538   1.7080354225e-17   0.0
C   1.42221846154   1.22755   0.0
C   1.42221846154   -1.22755   0.0
C   -1.42222153846   -1.22755   -0.0
C   -1.42222153846   1.22755   0.0
C   0.675098461538   2.4539   0.0
C   2.81773846154   1.20398   0.0
C   0.675098461538   -2.4539   0.0
C   2.81773846154   -1.20398   0.0
C   -0.675091538462   -2.4539   -0.0
C   -2.81774153846   -1.20398   -0.0
C   -0.675091538462   2.4539   -0.0
C   -2.81774153846   1.20398   -0.0
C   3.50522846154   1.7080354225e-17   0.0
C   -3.50523153846   1.7080354225e-17   0.0
H   1.22349846154   3.39003   -0.0
H   3.36291846154   2.14189   -0.0
H   1.22349846154   -3.39003   -0.0
H   3.36291846154   -2.14189   0.0
H   -1.22350153846   -3.39003   -0.0
H   -3.36292153846   -2.14189   -0.0
H   -1.22350153846   3.39003   -0.0
H   -3.36292153846   2.14189   -0.0
H   4.58974846154   1.7080354225e-17   0.0
H   -4.58974153846   1.7080354225e-17   -0.0
C   -4.412071538462   1.7080354225e-17   3.1
C   -2.9879215384620004   1.7080354225e-17   3.1
C   -2.27778153846   1.22755   3.1
C   -2.27778153846   -1.22755   3.1
C   -5.12222153846   -1.22755   3.1
C   -5.12222153846   1.22755   3.1
C   -3.024901538462   2.4539   3.1
C   -0.8822615384600003   1.20398   3.1
C   -3.024901538462   -2.4539   3.1
C   -0.8822615384600003   -1.20398   3.1
C   -4.375091538462   -2.4539   3.1
C   -6.51774153846   -1.20398   3.1
C   -4.375091538462   2.4539   3.1
C   -6.51774153846   1.20398   3.1
C   -0.1947715384600004   1.7080354225e-17   3.1
C   -7.20523153846   1.7080354225e-17   3.1
H   -2.47650153846   3.39003   3.1
H   -0.3370815384600001   2.14189   3.1
H   -2.47650153846   -3.39003   3.1
H   -0.3370815384600001   -2.14189   3.1
H   -4.92350153846   -3.39003   3.1
H   -7.06292153846   -2.14189   3.1
H   -4.92350153846   3.39003   3.1
H   -7.06292153846   2.14189   3.1
H   0.88974846154   1.7080354225e-17   3.1
H   -8.28974153846   1.7080354225e-17   3.1
