52

C   -0.712071538462   1.7080354225e-17   -0.0
C   0.712078461538   1.7080354225e-17   0.0
C   1.42221846154   1.22755   0.0
C   1.42221846154   -1.22755   0.0
C   -1.42222153846   -1.22755   -0.0
C   -1.42222153846   1.22755   0.0
C   0.675098461538   2.4539   0.0
C   2.81773846154   1.20398   0.0
C   0.675098461538   -2.4539   0.0
C   2.81773846154   -1.20398   0.0
C   -0.675091538462   -2.4539   -0.0
C   -2.81774153846   -1.20398   -0.0
C   -0.675091538462   2.4539   -0.0
C   -2.81774153846   1.20398   -0.0
C   3.50522846154   1.7080354225e-17   0.0
C   -3.50523153846   1.7080354225e-17   0.0
H   1.22349846154   3.39003   -0.0
H   3.36291846154   2.14189   -0.0
H   1.22349846154   -3.39003   -0.0
H   3.36291846154   -2.14189   0.0
H   -1.22350153846   -3.39003   -0.0
H   -3.36292153846   -2.14189   -0.0
H   -1.22350153846   3.39003   -0.0
H   -3.36292153846   2.14189   -0.0
H   4.58974846154   1.7080354225e-17   0.0
H   -4.58974153846   1.7080354225e-17   -0.0
C   1.387928461538   1.7080354225e-17   3.1
C   2.8120784615380003   1.7080354225e-17   3.1
C   3.52221846154   1.22755   3.1
C   3.52221846154   -1.22755   3.1
C   0.67777846154   -1.22755   3.1
C   0.67777846154   1.22755   3.1
C   2.775098461538   2.4539   3.1
C   4.91773846154   1.20398   3.1
C   2.775098461538   -2.4539   3.1
C   4.91773846154   -1.20398   3.1
C   1.424908461538   -2.4539   3.1
C   -0.7177415384599999   -1.20398   3.1
C   1.424908461538   2.4539   3.1
C   -0.7177415384599999   1.20398   3.1
C   5.605228461539999   1.7080354225e-17   3.1
C   -1.4052315384599998   1.7080354225e-17   3.1
H   3.32349846154   3.39003   3.1
H   5.46291846154   2.14189   3.1
H   3.32349846154   -3.39003   3.1
H   5.46291846154   -2.14189   3.1
H   0.87649846154   -3.39003   3.1
H   -1.26292153846   -2.14189   3.1
H   0.87649846154   3.39003   3.1
H   -1.26292153846   2.14189   3.1
H   6.689748461540001   1.7080354225e-17   3.1
H   -2.48974153846   1.7080354225e-17   3.1
