52

C   -0.712071538462   1.7080354225e-17   -0.0
C   0.712078461538   1.7080354225e-17   0.0
C   1.42221846154   1.22755   0.0
C   1.42221846154   -1.22755   0.0
C   -1.42222153846   -1.22755   -0.0
C   -1.42222153846   1.22755   0.0
C   0.675098461538   2.4539   0.0
C   2.81773846154   1.20398   0.0
C   0.675098461538   -2.4539   0.0
C   2.81773846154   -1.20398   0.0
C   -0.675091538462   -2.4539   -0.0
C   -2.81774153846   -1.20398   -0.0
C   -0.675091538462   2.4539   -0.0
C   -2.81774153846   1.20398   -0.0
C   3.50522846154   1.7080354225e-17   0.0
C   -3.50523153846   1.7080354225e-17   0.0
H   1.22349846154   3.39003   -0.0
H   3.36291846154   2.14189   -0.0
H   1.22349846154   -3.39003   -0.0
H   3.36291846154   -2.14189   0.0
H   -1.22350153846   -3.39003   -0.0
H   -3.36292153846   -2.14189   -0.0
H   -1.22350153846   3.39003   -0.0
H   -3.36292153846   2.14189   -0.0
H   4.58974846154   1.7080354225e-17   0.0
H   -4.58974153846   1.7080354225e-17   -0.0
C   -1.512071538462   1.7080354225e-17   3.1
C   -0.08792153846200002   1.7080354225e-17   3.1
C   0.6222184615399999   1.22755   3.1
C   0.6222184615399999   -1.22755   3.1
C   -2.2222215384600004   -1.22755   3.1
C   -2.2222215384600004   1.22755   3.1
C   -0.12490153846200003   2.4539   3.1
C   2.0177384615399996   1.20398   3.1
C   -0.12490153846200003   -2.4539   3.1
C   2.0177384615399996   -1.20398   3.1
C   -1.475091538462   -2.4539   3.1
C   -3.61774153846   -1.20398   3.1
C   -1.475091538462   2.4539   3.1
C   -3.61774153846   1.20398   3.1
C   2.70522846154   1.7080354225e-17   3.1
C   -4.30523153846   1.7080354225e-17   3.1
H   0.4234984615399999   3.39003   3.1
H   2.56291846154   2.14189   3.1
H   0.4234984615399999   -3.39003   3.1
H   2.56291846154   -2.14189   3.1
H   -2.02350153846   -3.39003   3.1
H   -4.16292153846   -2.14189   3.1
H   -2.02350153846   3.39003   3.1
H   -4.16292153846   2.14189   3.1
H   3.7897484615400003   1.7080354225e-17   3.1
H   -5.38974153846   1.7080354225e-17   3.1
