52

C   -0.712071538462   1.7080354225e-17   -0.0
C   0.712078461538   1.7080354225e-17   0.0
C   1.42221846154   1.22755   0.0
C   1.42221846154   -1.22755   0.0
C   -1.42222153846   -1.22755   -0.0
C   -1.42222153846   1.22755   0.0
C   0.675098461538   2.4539   0.0
C   2.81773846154   1.20398   0.0
C   0.675098461538   -2.4539   0.0
C   2.81773846154   -1.20398   0.0
C   -0.675091538462   -2.4539   -0.0
C   -2.81774153846   -1.20398   -0.0
C   -0.675091538462   2.4539   -0.0
C   -2.81774153846   1.20398   -0.0
C   3.50522846154   1.7080354225e-17   0.0
C   -3.50523153846   1.7080354225e-17   0.0
H   1.22349846154   3.39003   -0.0
H   3.36291846154   2.14189   -0.0
H   1.22349846154   -3.39003   -0.0
H   3.36291846154   -2.14189   0.0
H   -1.22350153846   -3.39003   -0.0
H   -3.36292153846   -2.14189   -0.0
H   -1.22350153846   3.39003   -0.0
H   -3.36292153846   2.14189   -0.0
H   4.58974846154   1.7080354225e-17   0.0
H   -4.58974153846   1.7080354225e-17   -0.0
C   -5.212071538462   1.7080354225e-17   3.1
C   -3.787921538462   1.7080354225e-17   3.1
C   -3.07778153846   1.22755   3.1
C   -3.07778153846   -1.22755   3.1
C   -5.9222215384600005   -1.22755   3.1
C   -5.9222215384600005   1.22755   3.1
C   -3.824901538462   2.4539   3.1
C   -1.6822615384600001   1.20398   3.1
C   -3.824901538462   -2.4539   3.1
C   -1.6822615384600001   -1.20398   3.1
C   -5.175091538462   -2.4539   3.1
C   -7.31774153846   -1.20398   3.1
C   -5.175091538462   2.4539   3.1
C   -7.31774153846   1.20398   3.1
C   -0.9947715384600002   1.7080354225e-17   3.1
C   -8.00523153846   1.7080354225e-17   3.1
H   -3.27650153846   3.39003   3.1
H   -1.13708153846   2.14189   3.1
H   -3.27650153846   -3.39003   3.1
H   -1.13708153846   -2.14189   3.1
H   -5.72350153846   -3.39003   3.1
H   -7.86292153846   -2.14189   3.1
H   -5.72350153846   3.39003   3.1
H   -7.86292153846   2.14189   3.1
H   0.08974846154000016   1.7080354225e-17   3.1
H   -9.08974153846   1.7080354225e-17   3.1
