384
ANTCEN
C      -1.580546    0.163751    3.361824
C      -0.770557    0.952495    2.581181
C      -0.377564    0.484851    1.270362
C       0.450597    1.264116    0.435652
C      -0.832491   -0.788985    0.826618
C      -1.686486   -1.566438    1.686889
C      -2.044441   -1.090463    2.911000
H      -1.884447    0.654157    4.338594
H      -0.338651    1.960116    2.911644
H       0.781210    2.272462    0.783310
H      -1.945079   -2.598997    1.316336
H      -2.618678   -1.955769    3.485955
C       0.832491    0.788985   -0.826618
C      -0.450597   -1.264116   -0.435652
C       0.377564   -0.484851   -1.270362
C       1.686486    1.566438   -1.686889
H      -0.781210   -2.272462   -0.783310
C       0.770557   -0.952495   -2.581181
C       2.044441    1.090463   -2.911000
H       1.945079    2.598997   -1.316336
C       1.580546   -0.163751   -3.361824
H       0.338651   -1.960116   -2.911644
H       2.618678    1.955769   -3.485955
H       1.884447   -0.654157   -4.338594
C      -7.947368    0.163751   12.556683
C      -7.137379    0.952495   11.776040
C      -6.744387    0.484851   10.465221
C      -5.916225    1.264116    9.630511
C      -7.199313   -0.788985   10.021477
C      -8.053308   -1.566438   10.881748
C      -8.411263   -1.090463   12.105859
H      -8.251269    0.654157   13.533453
H      -6.705473    1.960116   12.106503
H      -5.585612    2.272462    9.978169
H      -8.311901   -2.598997   10.511195
H      -8.985500   -1.955769   12.680814
C      -5.534331    0.788985    8.368241
C      -6.817419   -1.264116    8.759207
C      -5.989258   -0.484851    7.924497
C      -4.680336    1.566438    7.507970
H      -7.148032   -2.272462    8.411549
C      -5.596265   -0.952494    6.613678
C      -4.322382    1.090463    6.283859
H      -4.421743    2.598997    7.878523
C      -4.786276   -0.163751    5.833035
H      -6.028171   -1.960116    6.283215
H      -3.748144    1.955769    5.708904
H      -4.482375   -0.654157    4.856265
C      -1.580546    6.201751    3.361824
C      -0.770557    6.990495    2.581181
C      -0.377564    6.522851    1.270362
C       0.450597    7.302116    0.435652
C      -0.832491    5.249015    0.826618
C      -1.686486    4.471562    1.686889
C      -2.044441    4.947537    2.911000
H      -1.884447    6.692157    4.338594
H      -0.338651    7.998116    2.911644
H       0.781210    8.310462    0.783310
H      -1.945079    3.439003    1.316336
H      -2.618678    4.082231    3.485955
C       0.832491    6.826985   -0.826618
C      -0.450597    4.773884   -0.435652
C       0.377564    5.553149   -1.270362
C       1.686486    7.604438   -1.686889
H      -0.781210    3.765538   -0.783310
C       0.770557    5.085506   -2.581181
C       2.044441    7.128463   -2.911000
H       1.945079    8.636997   -1.316336
C       1.580546    5.874249   -3.361824
H       0.338651    4.077884   -2.911644
H       2.618678    7.993769   -3.485955
H       1.884447    5.383843   -4.338594
C      -7.947368    6.201751   12.556683
C      -7.137379    6.990495   11.776040
C      -6.744387    6.522851   10.465221
C      -5.916225    7.302116    9.630511
C      -7.199313    5.249015   10.021477
C      -8.053308    4.471562   10.881748
C      -8.411263    4.947537   12.105859
H      -8.251269    6.692157   13.533453
H      -6.705473    7.998116   12.106503
H      -5.585612    8.310462    9.978169
H      -8.311901    3.439003   10.511195
H      -8.985500    4.082231   12.680814
C      -5.534331    6.826985    8.368241
C      -6.817419    4.773884    8.759207
C      -5.989258    5.553149    7.924497
C      -4.680336    7.604438    7.507970
H      -7.148032    3.765538    8.411549
C      -5.596265    5.085506    6.613678
C      -4.322382    7.128463    6.283859
H      -4.421743    8.636997    7.878523
C      -4.786276    5.874249    5.833035
H      -6.028171    4.077884    6.283215
H      -3.748144    7.993769    5.708904
H      -4.482375    5.383843    4.856265
C       6.981454    0.163751    3.361824
C       7.791443    0.952495    2.581181
C       8.184436    0.484851    1.270362
C       9.012597    1.264116    0.435652
C       7.729509   -0.788985    0.826618
C       6.875514   -1.566438    1.686889
C       6.517559   -1.090463    2.911000
H       6.677553    0.654157    4.338594
H       8.223349    1.960116    2.911644
H       9.343210    2.272462    0.783310
H       6.616921   -2.598997    1.316336
H       5.943322   -1.955769    3.485955
C       9.394491    0.788985   -0.826618
C       8.111403   -1.264116   -0.435652
C       8.939564   -0.484851   -1.270362
C      10.248486    1.566438   -1.686889
H       7.780790   -2.272462   -0.783310
C       9.332557   -0.952495   -2.581181
C      10.606441    1.090463   -2.911000
H      10.507079    2.598997   -1.316336
C      10.142546   -0.163751   -3.361824
H       8.900651   -1.960116   -2.911644
H      11.180678    1.955769   -3.485955
H      10.446447   -0.654157   -4.338594
C       0.614632    0.163751   12.556683
C       1.424621    0.952495   11.776040
C       1.817613    0.484851   10.465221
C       2.645775    1.264116    9.630511
C       1.362687   -0.788985   10.021477
C       0.508692   -1.566438   10.881748
C       0.150737   -1.090463   12.105859
H       0.310731    0.654157   13.533453
H       1.856527    1.960116   12.106503
H       2.976388    2.272462    9.978169
H       0.250099   -2.598997   10.511195
H      -0.423500   -1.955769   12.680814
C       3.027669    0.788985    8.368241
C       1.744581   -1.264116    8.759207
C       2.572742   -0.484851    7.924497
C       3.881664    1.566438    7.507970
H       1.413968   -2.272462    8.411549
C       2.965735   -0.952494    6.613678
C       4.239618    1.090463    6.283859
H       4.140257    2.598997    7.878523
C       3.775724   -0.163751    5.833035
H       2.533829   -1.960116    6.283215
H       4.813856    1.955769    5.708904
H       4.079625   -0.654157    4.856265
C       6.981454    6.201751    3.361824
C       7.791443    6.990495    2.581181
C       8.184436    6.522851    1.270362
C       9.012597    7.302116    0.435652
C       7.729509    5.249015    0.826618
C       6.875514    4.471562    1.686889
C       6.517559    4.947537    2.911000
H       6.677553    6.692157    4.338594
H       8.223349    7.998116    2.911644
H       9.343210    8.310462    0.783310
H       6.616921    3.439003    1.316336
H       5.943322    4.082231    3.485955
C       9.394491    6.826985   -0.826618
C       8.111403    4.773884   -0.435652
C       8.939564    5.553149   -1.270362
C      10.248486    7.604438   -1.686889
H       7.780790    3.765538   -0.783310
C       9.332557    5.085506   -2.581181
C      10.606441    7.128463   -2.911000
H      10.507079    8.636997   -1.316336
C      10.142546    5.874249   -3.361824
H       8.900651    4.077884   -2.911644
H      11.180678    7.993769   -3.485955
H      10.446447    5.383843   -4.338594
C       0.614632    6.201751   12.556683
C       1.424621    6.990495   11.776040
C       1.817613    6.522851   10.465221
C       2.645775    7.302116    9.630511
C       1.362687    5.249015   10.021477
C       0.508692    4.471562   10.881748
C       0.150737    4.947537   12.105859
H       0.310731    6.692157   13.533453
H       1.856527    7.998116   12.106503
H       2.976388    8.310462    9.978169
H       0.250099    3.439003   10.511195
H      -0.423500    4.082231   12.680814
C       3.027669    6.826985    8.368241
C       1.744581    4.773884    8.759207
C       2.572742    5.553149    7.924497
C       3.881664    7.604438    7.507970
H       1.413968    3.765538    8.411549
C       2.965735    5.085506    6.613678
C       4.239618    7.128463    6.283859
H       4.140257    8.636997    7.878523
C       3.775724    5.874249    5.833035
H       2.533829    4.077884    6.283215
H       4.813856    7.993769    5.708904
H       4.079625    5.383843    4.856265
C       5.861546    3.182751   -3.361824
C       5.051557    3.971494   -2.581181
C       4.658564    3.503851   -1.270362
C       3.830403    4.283116   -0.435652
C       5.113491    2.230015   -0.826618
C       5.967486    1.452562   -1.686889
C       6.325441    1.928537   -2.911000
H       6.165447    3.673157   -4.338594
H       4.619651    4.979116   -2.911644
H       3.499790    5.291462   -0.783310
H       6.226079    0.420003   -1.316336
H       6.899678    1.063231   -3.485955
C       3.448509    3.807985    0.826618
C       4.731597    1.754884    0.435652
C       3.903436    2.534149    1.270362
C       2.594514    4.585438    1.686889
H       5.062210    0.746538    0.783310
C       3.510443    2.066506    2.581181
C       2.236559    4.109463    2.911000
H       2.335921    5.617997    1.316336
C       2.700454    2.855249    3.361824
H       3.942349    1.058884    2.911644
H       1.662322    4.974769    3.485955
H       2.396553    2.364843    4.338594
C      -0.505276    3.182751    5.833035
C      -1.315265    3.971495    6.613678
C      -1.708258    3.503851    7.924497
C      -2.536419    4.283116    8.759207
C      -1.253331    2.230015    8.368241
C      -0.399336    1.452562    7.507970
C      -0.041382    1.928537    6.283859
H      -0.201375    3.673157    4.856265
H      -1.747171    4.979116    6.283215
H      -2.867032    5.291462    8.411549
H      -0.140743    0.420003    7.878523
H       0.532856    1.063231    5.708904
C      -2.918313    3.807985   10.021477
C      -1.635225    1.754884    9.630511
C      -2.463387    2.534149   10.465221
C      -3.772308    4.585438   10.881748
H      -1.304612    0.746538    9.978169
C      -2.856379    2.066506   11.776040
C      -4.130263    4.109463   12.105859
H      -4.030901    5.617997   10.511195
C      -3.666368    2.855249   12.556683
H      -2.424473    1.058884   12.106503
H      -4.704500    4.974769   12.680814
H      -3.970269    2.364843   13.533453
C       5.861546    9.220751   -3.361824
C       5.051557   10.009495   -2.581181
C       4.658564    9.541851   -1.270362
C       3.830403   10.321116   -0.435652
C       5.113491    8.268015   -0.826618
C       5.967486    7.490562   -1.686889
C       6.325441    7.966537   -2.911000
H       6.165447    9.711157   -4.338594
H       4.619651   11.017116   -2.911644
H       3.499790   11.329462   -0.783310
H       6.226079    6.458003   -1.316336
H       6.899678    7.101231   -3.485955
C       3.448509    9.845985    0.826618
C       4.731597    7.792884    0.435652
C       3.903436    8.572149    1.270362
C       2.594514   10.623438    1.686889
H       5.062210    6.784538    0.783310
C       3.510443    8.104506    2.581181
C       2.236559   10.147463    2.911000
H       2.335921   11.655997    1.316336
C       2.700454    8.893249    3.361824
H       3.942349    7.096884    2.911644
H       1.662322   11.012769    3.485955
H       2.396553    8.402843    4.338594
C      -0.505276    9.220751    5.833035
C      -1.315265   10.009495    6.613678
C      -1.708258    9.541851    7.924497
C      -2.536419   10.321116    8.759207
C      -1.253331    8.268015    8.368241
C      -0.399336    7.490562    7.507970
C      -0.041382    7.966537    6.283859
H      -0.201375    9.711157    4.856265
H      -1.747171   11.017116    6.283215
H      -2.867032   11.329462    8.411549
H      -0.140743    6.458003    7.878523
H       0.532856    7.101231    5.708904
C      -2.918313    9.845985   10.021477
C      -1.635225    7.792884    9.630511
C      -2.463387    8.572149   10.465221
C      -3.772308   10.623438   10.881748
H      -1.304612    6.784538    9.978169
C      -2.856379    8.104506   11.776040
C      -4.130263   10.147463   12.105859
H      -4.030901   11.655997   10.511195
C      -3.666368    8.893249   12.556683
H      -2.424473    7.096884   12.106503
H      -4.704500   11.012769   12.680814
H      -3.970269    8.402843   13.533453
C      14.423546    3.182751   -3.361824
C      13.613557    3.971494   -2.581181
C      13.220564    3.503851   -1.270362
C      12.392403    4.283116   -0.435652
C      13.675491    2.230015   -0.826618
C      14.529486    1.452562   -1.686889
C      14.887441    1.928537   -2.911000
H      14.727447    3.673157   -4.338594
H      13.181651    4.979116   -2.911644
H      12.061790    5.291462   -0.783310
H      14.788079    0.420003   -1.316336
H      15.461678    1.063231   -3.485955
C      12.010509    3.807985    0.826618
C      13.293597    1.754884    0.435652
C      12.465436    2.534149    1.270362
C      11.156514    4.585438    1.686889
H      13.624210    0.746538    0.783310
C      12.072443    2.066506    2.581181
C      10.798559    4.109463    2.911000
H      10.897921    5.617997    1.316336
C      11.262454    2.855249    3.361824
H      12.504349    1.058884    2.911644
H      10.224322    4.974769    3.485955
H      10.958553    2.364843    4.338594
C       8.056724    3.182751    5.833035
C       7.246735    3.971495    6.613678
C       6.853742    3.503851    7.924497
C       6.025581    4.283116    8.759207
C       7.308669    2.230015    8.368241
C       8.162664    1.452562    7.507970
C       8.520618    1.928537    6.283859
H       8.360625    3.673157    4.856265
H       6.814829    4.979116    6.283215
H       5.694968    5.291462    8.411549
H       8.421257    0.420003    7.878523
H       9.094856    1.063231    5.708904
C       5.643687    3.807985   10.021477
C       6.926775    1.754884    9.630511
C       6.098613    2.534149   10.465221
C       4.789692    4.585438   10.881748
H       7.257388    0.746538    9.978169
C       5.705621    2.066506   11.776040
C       4.431737    4.109463   12.105859
H       4.531099    5.617997   10.511195
C       4.895632    2.855249   12.556683
H       6.137527    1.058884   12.106503
H       3.857500    4.974769   12.680814
H       4.591731    2.364843   13.533453
C      14.423546    9.220751   -3.361824
C      13.613557   10.009495   -2.581181
C      13.220564    9.541851   -1.270362
C      12.392403   10.321116   -0.435652
C      13.675491    8.268015   -0.826618
C      14.529486    7.490562   -1.686889
C      14.887441    7.966537   -2.911000
H      14.727447    9.711157   -4.338594
H      13.181651   11.017116   -2.911644
H      12.061790   11.329462   -0.783310
H      14.788079    6.458003   -1.316336
H      15.461678    7.101231   -3.485955
C      12.010509    9.845985    0.826618
C      13.293597    7.792884    0.435652
C      12.465436    8.572149    1.270362
C      11.156514   10.623438    1.686889
H      13.624210    6.784538    0.783310
C      12.072443    8.104506    2.581181
C      10.798559   10.147463    2.911000
H      10.897921   11.655997    1.316336
C      11.262454    8.893249    3.361824
H      12.504349    7.096884    2.911644
H      10.224322   11.012769    3.485955
H      10.958553    8.402843    4.338594
C       8.056724    9.220751    5.833035
C       7.246735   10.009495    6.613678
C       6.853742    9.541851    7.924497
C       6.025581   10.321116    8.759207
C       7.308669    8.268015    8.368241
C       8.162664    7.490562    7.507970
C       8.520618    7.966537    6.283859
H       8.360625    9.711157    4.856265
H       6.814829   11.017116    6.283215
H       5.694968   11.329462    8.411549
H       8.421257    6.458003    7.878523
H       9.094856    7.101231    5.708904
C       5.643687    9.845985   10.021477
C       6.926775    7.792884    9.630511
C       6.098613    8.572149   10.465221
C       4.789692   10.623438   10.881748
H       7.257388    6.784538    9.978169
C       5.705621    8.104506   11.776040
C       4.431737   10.147463   12.105859
H       4.531099   11.655997   10.511195
C       4.895632    8.893249   12.556683
H       6.137527    7.096884   12.106503
H       3.857500   11.012769   12.680814
H       4.591731    8.402843   13.533453
